<additional>
	<edgeData id="test_1" freq="600" file="edgedata.xml"/>
</additional>