<?xml version="1.0" encoding="UTF-8"?>

<!-- generated on 2023-09-14 14:45:35.763524 by SimulationProcessBot.py v1_18_0+0000-03ecfdea036
<configuration>
    <net-file value="./real-world-simulation-withTLS/xuancheng.net.xml"/>
    <config-file value="./real-world-simulation-withTLS/xuancheng.sumocfg"/>
    <output-file value="./real-world-simulation-withTLS/newTLS.add.xml"/>
    <route-files value="./real-world-simulation-withTLS/xuancheng.net.xml"/>
</configuration>
-->

<additional xmlns:xsi="http://www.w3.org/2001/XMLSchema-instance" xsi:noNamespaceSchemaLocation="http://sumo.dlr.de/xsd/additional_file.xsd">
</additional>
