<?xml version="1.0" encoding="UTF-8"?>

<configuration xmlns:xsi="http://www.w3.org/2001/XMLSchema-instance" xsi:noNamespaceSchemaLocation="http://sumo.dlr.de/xsd/sumoConfiguration.xsd">

    <input>
        <net-file value="xuancheng.net.xml"/>
        <route-files value="xuancheng.rou.xml"/>
		<additional-files value="add.add.xml,newTLS.add.xml"/>
    </input>

    <processing>
        <time-to-teleport value="300"/>
        <collision.action value="none"/>
		<mesosim value="TRUE"/>
    </processing>

</configuration>