<routes>
    <vehicle id="veh_1644964" depart="0.0">
        <route edges="21214_sa"/>
    </vehicle>
    <vehicle id="veh_627696" depart="0.375">
        <route edges="1215_op 1215_sa"/>
    </vehicle>
    <vehicle id="veh_208007" depart="0.75">
        <route edges="15342_op 21214_sa 21231_sa 21230_sa"/>
    </vehicle>
    <vehicle id="veh_42464" depart="1.125">
        <route edges="21187_sa 21232_op 21233_op 21234_op 21235_op 21236_op 21237_op"/>
    </vehicle>
    <vehicle id="veh_484517" depart="1.5">
        <route edges="21187_op 21186_op 21185_op 21184_op 1229_op"/>
    </vehicle>
    <vehicle id="veh_336937" depart="1.875">
        <route edges="15342_op"/>
    </vehicle>
    <vehicle id="veh_158523" depart="2.25">
        <route edges="21138_op 21229_op 21230_op 21231_op 21214_op 15342_sa"/>
    </vehicle>
    <vehicle id="veh_145106" depart="2.625">
        <route edges="21237_sa 21236_sa 21235_sa 21234_sa 21233_sa 21232_sa 21187_op 21186_op 21185_op 21184_op"/>
    </vehicle>
    <vehicle id="veh_301593" depart="3.0">
        <route edges="21208_sa 21209_sa 21236_sa"/>
    </vehicle>
    <vehicle id="veh_303628" depart="3.375">
        <route edges="1216_op 1217_op 1215_op 1214_op 1025_op"/>
    </vehicle>
    <vehicle id="veh_122399" depart="3.75">
        <route edges="21214_op"/>
    </vehicle>
    <vehicle id="veh_157204" depart="4.125">
        <route edges="21230_op 21209_sa 21237_op 21215_op"/>
    </vehicle>
    <vehicle id="veh_93280" depart="4.5">
        <route edges="1215_sa"/>
    </vehicle>
    <vehicle id="veh_33271" depart="4.875">
        <route edges="21212_sa 21214_sa 21215_sa 21215_op"/>
    </vehicle>
    <vehicle id="veh_198582" depart="5.25">
        <route edges="21215_op 21214_op 15342_sa"/>
    </vehicle>
    <vehicle id="veh_965568" depart="5.625">
        <route edges="15342_op 21214_sa 21231_sa 21231_op 21215_sa"/>
    </vehicle>
    <vehicle id="veh_509831" depart="6.0">
        <route edges="21236_op"/>
    </vehicle>
    <vehicle id="veh_321844" depart="6.375">
        <route edges="21231_sa 21209_sa 21236_sa"/>
    </vehicle>
    <vehicle id="veh_435776" depart="6.75">
        <route edges="1216_op"/>
    </vehicle>
    <vehicle id="veh_317980" depart="7.125">
        <route edges="1229_sa 1221_sa 1222_sa 15207_sa 21192_sa 21193_sa 21228_op 21229_op 21230_op 21208_op"/>
    </vehicle>
    <vehicle id="veh_315606" depart="7.5">
        <route edges="15217_sa 21217_sa 21184_op"/>
    </vehicle>
    <vehicle id="veh_153437" depart="7.875">
        <route edges="1220_sa 1027_sa 30191_op"/>
    </vehicle>
    <vehicle id="veh_182046" depart="8.25">
        <route edges="21237_sa 21236_sa 21205_op 21139_op 21204_op 21203_op 8008_op 1025_op 30191_sa"/>
    </vehicle>
    <vehicle id="veh_1469175" depart="8.625">
        <route edges="1229_sa 21184_sa 21217_op 21217_sa 21184_op 1221_sa 1222_sa 1220_sa 1027_sa 30191_op 1025_sa 
1214_sa 21207_sa 21208_sa 21209_sa 21237_op"/>
    </vehicle>
    <vehicle id="veh_181554" depart="9.0">
        <route edges="15342_op 21214_sa 21231_sa 21230_sa 21229_sa 21229_op"/>
    </vehicle>
    <vehicle id="veh_203923" depart="9.375">
        <route edges="1215_op 1214_op 8008_sa 21203_sa 21224_sa 21198_sa 21228_sa"/>
    </vehicle>
    <vehicle id="veh_1560952" depart="9.75">
        <route edges="30191_sa"/>
    </vehicle>
    <vehicle id="veh_188587" depart="10.125">
        <route edges="21233_op 21234_op 21235_op"/>
    </vehicle>
    <vehicle id="veh_461521" depart="10.5">
        <route edges="1229_sa 21184_sa 21184_op"/>
    </vehicle>
    <vehicle id="veh_1789638" depart="10.875">
        <route edges="21214_op"/>
    </vehicle>
    <vehicle id="veh_516130" depart="11.25">
        <route edges="8008_op 1214_sa 1215_sa 1217_sa 1216_sa"/>
    </vehicle>
    <vehicle id="veh_1276370" depart="11.625">
        <route edges="15342_op 21214_sa 21231_sa 21231_op 21215_sa"/>
    </vehicle>
    <vehicle id="veh_1447724" depart="12.0">
        <route edges="21186_op 21185_op 21184_op 1229_op"/>
    </vehicle>
    <vehicle id="veh_203364" depart="12.375">
        <route edges="21185_op 21184_op 1229_op"/>
    </vehicle>
    <vehicle id="veh_1063058" depart="12.75">
        <route edges="1229_sa 21184_sa 21185_sa 21186_sa 21227_op 21228_op 21138_sa"/>
    </vehicle>
    <vehicle id="veh_83269" depart="13.125">
        <route edges="21211_sa 21212_sa 21214_sa 21231_sa 21231_op 21215_sa 21215_op"/>
    </vehicle>
    <vehicle id="veh_859707" depart="13.5">
        <route edges="1217_sa"/>
    </vehicle>
    <vehicle id="veh_530110" depart="13.875">
        <route edges="21207_op 1215_sa 1217_sa 1216_sa"/>
    </vehicle>
    <vehicle id="veh_843557" depart="14.25">
        <route edges="1220_sa 1047_sa 1214_sa 1215_sa 1217_sa 1216_sa"/>
    </vehicle>
    <vehicle id="veh_206882" depart="14.625">
        <route edges="21220_sa 8009_sa 1220_op 1222_op 1221_op 21184_sa"/>
    </vehicle>
    <vehicle id="veh_533375" depart="15.0">
        <route edges="21185_op 21184_op 1229_op"/>
    </vehicle>
    <vehicle id="veh_947023" depart="15.374999999999998">
        <route edges="1216_op 1217_op 1215_op 1214_op 8008_sa"/>
    </vehicle>
    <vehicle id="veh_245327" depart="15.75">
        <route edges="1215_op 1214_op 1047_op 1220_op 1222_op 1221_op 21184_sa 21185_sa 21186_sa 21187_sa"/>
    </vehicle>
    <vehicle id="veh_1577642" depart="16.125">
        <route edges="21187_op 21186_op 21185_op 21184_op 1229_op"/>
    </vehicle>
    <vehicle id="veh_416717" depart="16.5">
        <route edges="21186_sa 21227_op 21228_op 21229_op 21230_op 21231_op 21214_op 15342_sa"/>
    </vehicle>
    <vehicle id="veh_249169" depart="16.875">
        <route edges="21187_op 21227_op 21228_op 21229_op 21230_op 21209_sa 21237_op 21215_op"/>
    </vehicle>
    <vehicle id="veh_549821" depart="17.25">
        <route edges="21215_op 21231_sa 21230_sa 21229_sa 21198_op 21197_op 8009_sa 1220_op 1222_op 1221_op 1229_op"/>
    </vehicle>
    <vehicle id="veh_1300089" depart="17.625">
        <route edges="1027_sa"/>
    </vehicle>
    <vehicle id="veh_117992" depart="18.0">
        <route edges="1025_sa 1047_op 1220_op"/>
    </vehicle>
    <vehicle id="veh_84269" depart="18.375">
        <route edges="21215_op 21215_sa"/>
    </vehicle>
    <vehicle id="veh_824891" depart="18.75">
        <route edges="15342_op 21214_sa 21231_sa 21231_op 21215_sa"/>
    </vehicle>
    <vehicle id="veh_70623" depart="19.125">
        <route edges="1229_sa 21184_sa 21185_sa 21186_sa 21187_sa"/>
    </vehicle>
    <vehicle id="veh_259312" depart="19.5">
        <route edges="21218_sa 21217_sa 21185_sa"/>
    </vehicle>
    <vehicle id="veh_1001979" depart="19.875">
        <route edges="21184_op 21184_sa"/>
    </vehicle>
    <vehicle id="veh_1086272" depart="20.25">
        <route edges="15342_op 21214_sa 21215_sa"/>
    </vehicle>
    <vehicle id="veh_261009" depart="20.625">
        <route edges="15342_op 21214_sa 21231_sa 21231_op 21215_sa"/>
    </vehicle>
    <vehicle id="veh_1090066" depart="21.0">
        <route edges="21214_op 21212_op 21211_op 1215_op 1215_sa"/>
    </vehicle>
    <vehicle id="veh_121209" depart="21.375">
        <route edges="21187_op 21186_op 21185_op 21184_op 1229_op"/>
    </vehicle>
    <vehicle id="veh_1091269" depart="21.75">
        <route edges="21214_op 21212_op 21211_op"/>
    </vehicle>
    <vehicle id="veh_190378" depart="22.125">
        <route edges="21184_sa 21217_op 21218_op 21219_op"/>
    </vehicle>
    <vehicle id="veh_173262" depart="22.5">
        <route edges="15342_op 21214_sa 21215_sa"/>
    </vehicle>
    <vehicle id="veh_378374" depart="22.875">
        <route edges="21185_sa 21186_sa 21227_op 21228_op 21229_op 21230_op 21209_sa 21237_op"/>
    </vehicle>
    <vehicle id="veh_1591275" depart="23.25">
        <route edges="21214_op"/>
    </vehicle>
    <vehicle id="veh_134673" depart="23.625">
        <route edges="21187_op 21186_op 21185_op 21184_op 1229_op"/>
    </vehicle>
    <vehicle id="veh_375804" depart="24.0">
        <route edges="1216_op 1217_op 1215_op 1214_op 1214_sa"/>
    </vehicle>
    <vehicle id="veh_1592073" depart="24.375">
        <route edges="15342_op 21212_op 21226_sa 21207_op 1215_sa 1217_sa"/>
    </vehicle>
    <vehicle id="veh_757982" depart="24.75">
        <route edges="1025_sa 1214_sa 1215_sa"/>
    </vehicle>
    <vehicle id="veh_19897" depart="25.125">
        <route edges="21208_sa"/>
    </vehicle>
    <vehicle id="veh_576306" depart="25.5">
        <route edges="21215_op 21214_op 15342_sa"/>
    </vehicle>
    <vehicle id="veh_201160" depart="25.875">
        <route edges="30198_op 30191_op 1025_sa 1214_sa 1215_sa"/>
    </vehicle>
    <vehicle id="veh_170740" depart="26.25">
        <route edges="21138_op 21228_sa 21227_sa"/>
    </vehicle>
    <vehicle id="veh_102240" depart="26.625">
        <route edges="1216_op 1217_op 1215_op 1214_op 1025_op"/>
    </vehicle>
    <vehicle id="veh_1536652" depart="27.0">
        <route edges="15342_op 21214_sa 21231_sa 21231_op 21215_sa"/>
    </vehicle>
    <vehicle id="veh_136056" depart="27.375">
        <route edges="1047_sa 1214_sa 1215_sa 1217_sa 1216_sa"/>
    </vehicle>
    <vehicle id="veh_737378" depart="28.125">
        <route edges="21184_op"/>
    </vehicle>
    <vehicle id="veh_18637" depart="28.5">
        <route edges="21194_op"/>
    </vehicle>
    <vehicle id="veh_1609252" depart="28.875">
        <route edges="1215_op 1215_sa"/>
    </vehicle>
    <vehicle id="veh_1036099" depart="29.25">
        <route edges="15342_sa 1216_op 1217_op 1215_op 1214_op 1214_sa"/>
    </vehicle>
    <vehicle id="veh_138343" depart="29.625">
        <route edges="21205_sa 21236_op 21237_op"/>
    </vehicle>
    <vehicle id="veh_1237113" depart="30.0">
        <route edges="1217_sa"/>
    </vehicle>
    <vehicle id="veh_1410058" depart="30.375">
        <route edges="1217_op 1215_op 21207_sa"/>
    </vehicle>
    <vehicle id="veh_1015479" depart="30.749999999999996">
        <route edges="8009_op 21197_sa 21198_sa 21138_sa 21140_op 21205_sa 21236_op 21237_op"/>
    </vehicle>
    <vehicle id="veh_89284" depart="31.125000000000004">
        <route edges="21219_op 8009_sa 1027_sa 30191_op"/>
    </vehicle>
    <vehicle id="veh_614408" depart="31.5">
        <route edges="1217_op"/>
    </vehicle>
    <vehicle id="veh_616952" depart="31.875">
        <route edges="1215_op 1215_sa"/>
    </vehicle>
    <vehicle id="veh_118667" depart="32.25">
        <route edges="21215_sa 21237_sa 21236_sa 21235_sa 21234_sa 21233_sa 21232_sa"/>
    </vehicle>
    <vehicle id="veh_492178" depart="32.625">
        <route edges="21215_op 21214_op 15342_sa"/>
    </vehicle>
    <vehicle id="veh_1185332" depart="33.0">
        <route edges="1027_sa"/>
    </vehicle>
    <vehicle id="veh_750552" depart="33.375">
        <route edges="1217_op 1215_op 1214_op 8008_sa 8008_op 1214_sa 1215_sa 1217_sa 1216_sa"/>
    </vehicle>
    <vehicle id="veh_1400686" depart="33.75">
        <route edges="1217_op 21211_sa 21212_sa 21214_sa 21231_sa 21231_op"/>
    </vehicle>
    <vehicle id="veh_741665" depart="34.125">
        <route edges="21187_op 21186_op 21185_op 21184_op 1229_op"/>
    </vehicle>
    <vehicle id="veh_602095" depart="34.5">
        <route edges="1025_sa 1214_sa 1215_sa 1217_sa 1216_sa"/>
    </vehicle>
    <vehicle id="veh_1064214" depart="34.875">
        <route edges="1229_sa 21184_sa 21184_op"/>
    </vehicle>
    <vehicle id="veh_854688" depart="35.25">
        <route edges="1221_sa 1222_sa 1220_sa 8009_op 21197_sa"/>
    </vehicle>
    <vehicle id="veh_751072" depart="35.625">
        <route edges="1229_sa 21184_sa 21184_op"/>
    </vehicle>
    <vehicle id="veh_1552056" depart="36.0">
        <route edges="21228_sa 21193_op 21223_op 21224_op 21204_sa 21229_sa 21228_sa"/>
    </vehicle>
    <vehicle id="veh_608177" depart="36.375">
        <route edges="21138_op 21198_op 21197_op 8009_sa 1027_sa 30191_op"/>
    </vehicle>
    <vehicle id="veh_1229325" depart="36.75">
        <route edges="1216_op 1217_op 21211_sa"/>
    </vehicle>
    <vehicle id="veh_1313248" depart="37.125">
        <route edges="21211_sa 21212_sa 21214_sa 21231_sa 21208_op 21207_op"/>
    </vehicle>
    <vehicle id="veh_1083263" depart="37.5">
        <route edges="21215_op 21214_op 15342_sa"/>
    </vehicle>
    <vehicle id="veh_1559224" depart="37.875">
        <route edges="21237_sa 21236_sa 21205_op 21140_sa 21138_op 21228_sa 21193_op 21222_sa"/>
    </vehicle>
    <vehicle id="veh_1139884" depart="38.25">
        <route edges="21215_op 21215_sa"/>
    </vehicle>
    <vehicle id="veh_1139908" depart="38.625">
        <route edges="21204_sa 21139_sa 21205_sa 21236_op 21237_op"/>
    </vehicle>
    <vehicle id="veh_1360998" depart="39.0">
        <route edges="15342_op 21214_sa 21231_sa 21230_sa 21229_sa 21228_sa 21227_sa"/>
    </vehicle>
    <vehicle id="veh_1822002" depart="39.375">
        <route edges="21194_sa"/>
    </vehicle>
    <vehicle id="veh_1437398" depart="39.75">
        <route edges="21214_op 21214_sa"/>
    </vehicle>
    <vehicle id="veh_1789036" depart="40.125">
        <route edges="1216_op 1217_op 1215_op 1214_op 8008_sa 8008_op 1214_sa 21207_sa 21226_op 21212_sa 15342_sa"/>
    </vehicle>
    <vehicle id="veh_562749" depart="40.5">
        <route edges="1217_op"/>
    </vehicle>
    <vehicle id="veh_1025788" depart="40.875">
        <route edges="21187_op 21186_op 21185_op 21184_op 1229_op 30198_op 1027_op 1047_sa 1214_sa 21207_sa 21207_op 
1215_sa 1217_sa"/>
    </vehicle>
    <vehicle id="veh_663774" depart="41.25">
        <route edges="1229_sa 21184_sa 21185_sa 21186_sa"/>
    </vehicle>
    <vehicle id="veh_885907" depart="41.625">
        <route edges="21205_op 21139_op 21204_op 21203_op 8008_op 1025_op 30191_sa"/>
    </vehicle>
    <vehicle id="veh_1019276" depart="42.0">
        <route edges="1214_op 1047_op 1220_op 1222_op 1221_op 21184_sa 21185_sa 21186_sa"/>
    </vehicle>
    <vehicle id="veh_1385218" depart="42.375">
        <route edges="21186_op 21185_op 21184_op 1229_op"/>
    </vehicle>
    <vehicle id="veh_1575621" depart="42.75">
        <route edges="1025_sa 1047_op 8009_op 21219_sa 21219_op 8009_sa 1047_sa 1025_op"/>
    </vehicle>
    <vehicle id="veh_873656" depart="43.125">
        <route edges="30198_op"/>
    </vehicle>
    <vehicle id="veh_1477102" depart="43.5">
        <route edges="1216_op 1217_op 1215_op 1214_op 1214_sa"/>
    </vehicle>
    <vehicle id="veh_932750" depart="43.875">
        <route edges="21138_op 21198_op 21197_op 8009_sa 1027_sa 30198_sa"/>
    </vehicle>
    <vehicle id="veh_1253110" depart="44.25">
        <route edges="30198_op"/>
    </vehicle>
    <vehicle id="veh_1594548" depart="44.625">
        <route edges="1025_sa"/>
    </vehicle>
    <vehicle id="veh_1249322" depart="45.0">
        <route edges="21207_op 1215_sa 1217_sa"/>
    </vehicle>
    <vehicle id="veh_1601667" depart="45.375">
        <route edges="21215_op 21214_op 15342_sa"/>
    </vehicle>
    <vehicle id="veh_1075968" depart="45.75">
        <route edges="21214_op"/>
    </vehicle>
    <vehicle id="veh_993642" depart="46.125">
        <route edges="21218_op 21219_op 21220_op 8008_op 1214_sa 1215_sa"/>
    </vehicle>
    <vehicle id="veh_1524679" depart="46.5">
        <route edges="1216_op 1217_op 1215_op 1214_op 1047_op 1220_op 1222_op 1221_op 21184_sa"/>
    </vehicle>
    <vehicle id="veh_1710354" depart="46.875">
        <route edges="21215_op 21214_op 15342_sa"/>
    </vehicle>
    <vehicle id="veh_1419312" depart="47.25">
        <route edges="15342_op 21214_sa 21231_sa 21208_op 21207_op 1215_sa 1217_sa 1216_sa"/>
    </vehicle>
    <vehicle id="veh_1493054" depart="47.625">
        <route edges="30191_op 30191_sa"/>
    </vehicle>
    <vehicle id="veh_1516528" depart="48.0">
        <route edges="21229_op"/>
    </vehicle>
    <vehicle id="veh_922433" depart="48.375">
        <route edges="8008_op 1214_sa 1215_sa 1217_sa 1216_sa"/>
    </vehicle>
    <vehicle id="veh_1306741" depart="48.75">
        <route edges="21237_op 21215_op 21214_op 15342_sa"/>
    </vehicle>
    <vehicle id="veh_1186797" depart="49.125">
        <route edges="21228_op 21229_op 21230_op 21231_op 21215_sa"/>
    </vehicle>
    <vehicle id="veh_1488847" depart="49.5">
        <route edges="21192_op 21218_sa 21217_sa 21184_op 1221_sa 1222_sa 1220_sa 1047_sa 8008_sa"/>
    </vehicle>
    <vehicle id="veh_1546353" depart="49.875">
        <route edges="21184_op"/>
    </vehicle>
    <vehicle id="veh_1193195" depart="50.25">
        <route edges="1025_sa 1214_sa 1215_sa 1217_sa 1216_sa"/>
    </vehicle>
    <vehicle id="veh_1597115" depart="50.625">
        <route edges="21237_sa 21236_sa 21236_op 21237_op"/>
    </vehicle>
    <vehicle id="veh_1599360" depart="51.0">
        <route edges="21187_op 21186_op 21185_op 21184_op"/>
    </vehicle>
    <vehicle id="veh_1435141" depart="51.375">
        <route edges="21187_op 21186_op 21185_op 21184_op 1229_op"/>
    </vehicle>
    <vehicle id="veh_1434358" depart="51.75">
        <route edges="21186_op 21221_op 21222_op 21223_op 21224_op 21203_op 8008_op 1025_op"/>
    </vehicle>
    <vehicle id="veh_752324" depart="52.125">
        <route edges="21214_op 21212_op 21211_op 1215_op 1214_op 8008_sa 8008_op 1214_sa 1215_sa 1217_sa 1216_sa"/>
    </vehicle>
    <vehicle id="veh_963337" depart="52.5">
        <route edges="21187_op 21227_op 21228_op 21228_sa"/>
    </vehicle>
    <vehicle id="veh_1423035" depart="53.25">
        <route edges="21214_op"/>
    </vehicle>
    <vehicle id="veh_1112134" depart="53.625">
        <route edges="21187_op 21186_op 21185_op 21184_op 1229_op"/>
    </vehicle>
    <vehicle id="veh_1817652" depart="54.0">
        <route edges="21212_sa"/>
    </vehicle>
    <vehicle id="veh_963841" depart="54.375">
        <route edges="1215_sa"/>
    </vehicle>
    <vehicle id="veh_968784" depart="54.75">
        <route edges="30191_sa 1027_op 8009_op 21219_sa"/>
    </vehicle>
    <vehicle id="veh_1144279" depart="55.125">
        <route edges="21218_sa 21217_sa 21185_sa 21221_op 21190_op 21217_sa"/>
    </vehicle>
    <vehicle id="veh_983739" depart="55.5">
        <route edges="15342_op 21214_sa 21215_sa"/>
    </vehicle>
    <vehicle id="veh_1221024" depart="55.875">
        <route edges="1229_sa 1221_sa 1222_sa 1220_sa 1027_sa"/>
    </vehicle>
    <vehicle id="veh_1378033" depart="56.25">
        <route edges="21138_op 21229_op 21230_op 21231_op"/>
    </vehicle>
    <vehicle id="veh_1370306" depart="56.625">
        <route edges="21237_sa 21236_sa 21235_sa 21234_sa 21233_sa 21232_sa"/>
    </vehicle>
    <vehicle id="veh_1578694" depart="57.0">
        <route edges="21212_sa 21214_sa 21214_op 15342_sa"/>
    </vehicle>
    <vehicle id="veh_918423" depart="57.375">
        <route edges="8009_sa 1220_op 1222_op 1221_op 21184_sa 21185_sa 21186_sa 21187_sa"/>
    </vehicle>
    <vehicle id="veh_1343480" depart="57.75">
        <route edges="21215_op 21214_op 21212_op 21211_op"/>
    </vehicle>
    <vehicle id="veh_1339033" depart="58.125">
        <route edges="30198_op"/>
    </vehicle>
    <vehicle id="veh_1786957" depart="58.5">
        <route edges="21215_op 21214_op 15342_sa"/>
    </vehicle>
    <vehicle id="veh_1335639" depart="58.875">
        <route edges="1216_op 1217_op 1215_op 1214_op 1047_op 1047_sa 1214_sa 1215_sa 1217_sa 1216_sa"/>
    </vehicle>
    <vehicle id="veh_1084053" depart="59.25">
        <route edges="1047_sa 1214_sa 1215_sa 1217_sa 1216_sa"/>
    </vehicle>
    <vehicle id="veh_777066" depart="59.625">
        <route edges="21211_sa 21212_sa 21214_sa 21231_sa 21231_op 21215_sa"/>
    </vehicle>
    <vehicle id="veh_1666815" depart="60.0">
        <route edges="21232_op 21233_op 21234_op 21235_op 21236_op 21237_op"/>
    </vehicle>
    <vehicle id="veh_1212662" depart="60.49586776859504">
        <route edges="21214_op 21212_op 21211_op"/>
    </vehicle>
    <vehicle id="veh_729546" depart="60.99173553719008">
        <route edges="1216_op"/>
    </vehicle>
    <vehicle id="veh_1250444" depart="61.48760330578512">
        <route edges="21230_sa 21229_sa 21228_sa 21227_sa"/>
    </vehicle>
    <vehicle id="veh_1176419" depart="61.98347107438016">
        <route edges="1216_op 1217_op 1215_op 1215_sa"/>
    </vehicle>
    <vehicle id="veh_1503204" depart="62.47933884297521">
        <route edges="1216_op 1217_op 1215_op 1214_op 1047_op 1220_op 1222_op 1221_op"/>
    </vehicle>
    <vehicle id="veh_1217933" depart="62.97520661157025">
        <route edges="1216_op 1217_op 21211_sa"/>
    </vehicle>
    <vehicle id="veh_1290815" depart="63.47107438016529">
        <route edges="21207_op 1214_op 1025_op 30191_sa 30198_sa"/>
    </vehicle>
    <vehicle id="veh_1269641" depart="63.96694214876033">
        <route edges="21227_op 21228_op 21229_op 21230_op 21231_op 21214_op 15342_sa"/>
    </vehicle>
    <vehicle id="veh_1250596" depart="64.46280991735537">
        <route edges="1216_op 1217_op 1215_op 1214_op 1025_op 30191_sa"/>
    </vehicle>
    <vehicle id="veh_1129435" depart="64.95867768595042">
        <route edges="21237_sa 21236_sa 21205_op 21140_sa 21138_op 21198_op 21224_op 21225_op 21207_op 1215_sa"/>
    </vehicle>
    <vehicle id="veh_1570497" depart="65.45454545454545">
        <route edges="30191_op 1025_sa 1047_op 1220_op 1222_op 1221_op 21184_sa 21185_sa 21186_sa 21187_sa"/>
    </vehicle>
    <vehicle id="veh_1100210" depart="65.9504132231405">
        <route edges="30191_sa 1027_op 1220_op 1222_op 1221_op 21184_sa"/>
    </vehicle>
    <vehicle id="veh_1524412" depart="66.44628099173553">
        <route edges="1216_op 1217_op 1215_op 1214_op 8008_sa 21203_sa 21225_op 21208_sa 21231_op 21214_op 15342_sa"/>
    </vehicle>
    <vehicle id="veh_1097699" depart="66.94214876033058">
        <route edges="1217_op 1215_op 1214_op 1047_op 1220_op 1222_op 1221_op"/>
    </vehicle>
    <vehicle id="veh_1484788" depart="67.43801652892562">
        <route edges="21194_sa 21233_op 21234_op 21235_op 21236_op 21237_op"/>
    </vehicle>
    <vehicle id="veh_1821886" depart="67.93388429752066">
        <route edges="21138_op 21198_op 21197_op 8009_sa 1220_op 1220_sa 1047_sa 1214_sa 1214_op 1025_op"/>
    </vehicle>
    <vehicle id="veh_1230655" depart="68.4297520661157">
        <route edges="21215_op 21214_op 21212_op 21211_op"/>
    </vehicle>
    <vehicle id="veh_1705863" depart="68.92561983471074">
        <route edges="21194_sa"/>
    </vehicle>
    <vehicle id="veh_1531397" depart="69.42148760330579">
        <route edges="21187_op 21186_op 21185_op 21184_op 1229_op 30198_op 30191_op"/>
    </vehicle>
    <vehicle id="veh_1430785" depart="69.91735537190083">
        <route edges="1047_sa"/>
    </vehicle>
    <vehicle id="veh_1145230" depart="70.41322314049587">
        <route edges="21231_sa 21230_sa 21229_sa 21228_sa 21227_sa"/>
    </vehicle>
    <vehicle id="veh_1545888" depart="70.9090909090909">
        <route edges="21236_sa 21235_sa 21234_sa 21233_sa 21232_sa 21232_op 21233_op 21234_op 21235_op 21236_op 
21236_sa"/>
    </vehicle>
    <vehicle id="veh_495452" depart="71.40495867768595">
        <route edges="21215_op 21214_op 15342_sa"/>
    </vehicle>
    <vehicle id="veh_276809" depart="71.90082644628099">
        <route edges="15342_op 21214_sa 21215_sa"/>
    </vehicle>
    <vehicle id="veh_749424" depart="72.39669421487604">
        <route edges="21236_op 21237_op 21215_op 21214_op 15342_sa"/>
    </vehicle>
    <vehicle id="veh_296030" depart="72.89256198347107">
        <route edges="15342_op 21214_sa 21231_sa 21231_op 21215_sa"/>
    </vehicle>
    <vehicle id="veh_187818" depart="73.38842975206612">
        <route edges="1216_op 1217_op 1215_op 1215_sa"/>
    </vehicle>
    <vehicle id="veh_159575" depart="73.88429752066116">
        <route edges="1217_sa"/>
    </vehicle>
    <vehicle id="veh_207371" depart="74.3801652892562">
        <route edges="1216_op 1217_op 1215_op 1214_op 1025_op 1025_sa 8008_sa 21203_sa 21204_sa 21139_sa 21205_sa 
21236_op 21237_op"/>
    </vehicle>
    <vehicle id="veh_41891" depart="74.87603305785125">
        <route edges="21214_op"/>
    </vehicle>
    <vehicle id="veh_158674" depart="75.37190082644628">
        <route edges="21187_op 21186_op 21185_op 21184_op 1229_op"/>
    </vehicle>
    <vehicle id="veh_391890" depart="75.86776859504133">
        <route edges="1221_sa 1222_sa 1220_sa 1047_sa 1214_sa"/>
    </vehicle>
    <vehicle id="veh_144332" depart="76.36363636363636">
        <route edges="21214_op 21212_op 21211_op"/>
    </vehicle>
    <vehicle id="veh_48611" depart="76.85950413223141">
        <route edges="1221_sa 1222_sa 1220_sa 8009_op 21220_op"/>
    </vehicle>
    <vehicle id="veh_132760" depart="77.35537190082644">
        <route edges="21215_op 21231_sa 21230_sa"/>
    </vehicle>
    <vehicle id="veh_279339" depart="77.85123966942149">
        <route edges="21214_op 21212_op 21211_op"/>
    </vehicle>
    <vehicle id="veh_147083" depart="78.34710743801654">
        <route edges="21215_op 21214_op 21212_op 21211_op"/>
    </vehicle>
    <vehicle id="veh_158173" depart="78.84297520661157">
        <route edges="21237_sa 21209_op 21230_sa 21229_sa 21228_sa"/>
    </vehicle>
    <vehicle id="veh_133056" depart="79.3388429752066">
        <route edges="21230_op"/>
    </vehicle>
    <vehicle id="veh_1135479" depart="79.83471074380165">
        <route edges="1229_sa"/>
    </vehicle>
    <vehicle id="veh_108955" depart="80.3305785123967">
        <route edges="21232_op 21194_op 21228_op 21229_op 21230_op 21208_op 21207_op 1215_sa 1217_sa 1216_sa"/>
    </vehicle>
    <vehicle id="veh_198649" depart="80.82644628099173">
        <route edges="21207_op 1214_op 1047_op 1220_op 1222_op 1221_op"/>
    </vehicle>
    <vehicle id="veh_306282" depart="81.32231404958678">
        <route edges="1221_sa 1222_sa 1220_sa 1047_sa 8008_sa"/>
    </vehicle>
    <vehicle id="veh_1383087" depart="81.81818181818181">
        <route edges="8009_sa 1027_sa 30198_sa"/>
    </vehicle>
    <vehicle id="veh_26508" depart="82.31404958677686">
        <route edges="21215_op 21215_sa"/>
    </vehicle>
    <vehicle id="veh_327185" depart="83.30578512396694">
        <route edges="1220_sa 1047_sa 1214_sa 1215_sa"/>
    </vehicle>
    <vehicle id="veh_109342" depart="83.80165289256198">
        <route edges="21214_op"/>
    </vehicle>
    <vehicle id="veh_1581882" depart="84.29752066115702">
        <route edges="1215_op 1214_op 1214_sa 1215_sa 1217_sa 1216_sa"/>
    </vehicle>
    <vehicle id="veh_930778" depart="84.79338842975207">
        <route edges="21205_op 21139_op 21229_sa 21228_sa 21228_op 21229_op 21204_op 21203_op 8008_op 1025_op"/>
    </vehicle>
    <vehicle id="veh_556968" depart="85.2892561983471">
        <route edges="1215_op 1215_sa"/>
    </vehicle>
    <vehicle id="veh_137171" depart="85.78512396694215">
        <route edges="21227_op 21228_op 21229_op 21230_op 21231_op 21214_op 21214_sa"/>
    </vehicle>
    <vehicle id="veh_192582" depart="86.28099173553719">
        <route edges="1229_sa 21184_sa 21184_op"/>
    </vehicle>
    <vehicle id="veh_10205" depart="86.77685950413223">
        <route edges="15342_op 21214_sa 21231_sa 21231_op 21215_sa 21215_op"/>
    </vehicle>
    <vehicle id="veh_133352" depart="87.27272727272728">
        <route edges="21207_op 1215_sa 1215_op 1215_sa 1217_sa"/>
    </vehicle>
    <vehicle id="veh_670923" depart="87.76859504132231">
        <route edges="1229_sa"/>
    </vehicle>
    <vehicle id="veh_198216" depart="88.26446280991735">
        <route edges="21214_op"/>
    </vehicle>
    <vehicle id="veh_141156" depart="88.7603305785124">
        <route edges="1217_sa"/>
    </vehicle>
    <vehicle id="veh_174032" depart="89.25619834710744">
        <route edges="30198_op"/>
    </vehicle>
    <vehicle id="veh_380286" depart="89.75206611570248">
        <route edges="21227_op 21228_op 21229_op 21230_op 21209_sa 21237_op 21215_op"/>
    </vehicle>
    <vehicle id="veh_1502989" depart="90.74380165289256">
        <route edges="1229_sa 21184_sa 21184_op"/>
    </vehicle>
    <vehicle id="veh_75708" depart="91.2396694214876">
        <route edges="1217_sa"/>
    </vehicle>
    <vehicle id="veh_165262" depart="91.73553719008265">
        <route edges="21215_op 21214_op 15342_sa"/>
    </vehicle>
    <vehicle id="veh_223118" depart="92.23140495867769">
        <route edges="21220_sa 21219_sa 21218_sa 21217_sa 21185_sa"/>
    </vehicle>
    <vehicle id="veh_186791" depart="92.72727272727272">
        <route edges="21214_op 21212_op 21211_op"/>
    </vehicle>
    <vehicle id="veh_173583" depart="93.22314049586777">
        <route edges="30191_sa 1027_op 1047_sa 8008_sa 8008_op 1214_sa 1215_sa"/>
    </vehicle>
    <vehicle id="veh_74257" depart="93.71900826446281">
        <route edges="8008_op 1025_op 30191_sa"/>
    </vehicle>
    <vehicle id="veh_15446" depart="94.21487603305785">
        <route edges="21215_op 21215_sa"/>
    </vehicle>
    <vehicle id="veh_181406" depart="94.71074380165288">
        <route edges="21184_op"/>
    </vehicle>
    <vehicle id="veh_13982" depart="95.20661157024793">
        <route edges="1216_op 1217_op 21211_sa"/>
    </vehicle>
    <vehicle id="veh_74531" depart="95.70247933884298">
        <route edges="15342_op 21214_sa 21215_sa"/>
    </vehicle>
    <vehicle id="veh_181132" depart="96.19834710743802">
        <route edges="21187_op 21186_op 21185_op 21184_op 1229_op"/>
    </vehicle>
    <vehicle id="veh_941649" depart="96.69421487603306">
        <route edges="21227_op 21228_op 21229_op 21230_op 21231_op"/>
    </vehicle>
    <vehicle id="veh_27364" depart="97.19008264462809">
        <route edges="21184_op"/>
    </vehicle>
    <vehicle id="veh_1101403" depart="97.68595041322314">
        <route edges="21215_op 21231_sa 21208_op 21208_sa 21230_sa 21204_op 21203_op 8008_op 1025_op"/>
    </vehicle>
    <vehicle id="veh_1644478" depart="98.18181818181819">
        <route edges="15342_op 21214_sa 21215_sa"/>