<?xml version="1.0" encoding="UTF-8"?>

<!-- generated on 2023-08-02 17:22:18 by Eclipse SUMO netedit Version 1.18.0
<configuration xmlns:xsi="http://www.w3.org/2001/XMLSchema-instance" xsi:noNamespaceSchemaLocation="http://sumo.dlr.de/xsd/neteditConfiguration.xsd">

    <input>
        <sumo-net-file value="C:\Users\de&apos;l&apos;l\Desktop\TransGPT-demo\test-tools\real-world-simulation - test tl\xuancheng2.net.xml"/>
    </input>

    <output>
        <output-file value="C:\Users\de&apos;l&apos;l\Desktop\TransGPT-demo\test-tools\real-world-simulation - test tl\xuancheng2.net.xml"/>
    </output>

    <processing>
        <geometry.min-radius.fix.railways value="false"/>
        <geometry.max-grade.fix value="false"/>
        <offset.disable-normalization value="true"/>
        <lefthand value="0"/>
    </processing>

    <junctions>
        <no-turnarounds value="true"/>
        <junctions.corner-detail value="5"/>
        <junctions.limit-turn-speed value="5.50"/>
        <rectangular-lane-cut value="0"/>
    </junctions>

    <pedestrian>
        <walkingareas value="0"/>
    </pedestrian>

</configuration>
-->

<net version="1.16" junctionCornerDetail="5" limitTurnSpeed="5.50" xmlns:xsi="http://www.w3.org/2001/XMLSchema-instance" xsi:noNamespaceSchemaLocation="http://sumo.dlr.de/xsd/net_file.xsd">

    <location netOffset="-13204388.69,-3595820.56" convBoundary="9738.20,4577.79,27585.49,16267.25" origBoundary="13204388.69,3595820.56,13236772.90,3616156.96" projParameter="!"/>

    <edge id=":4423_0" function="internal">
        <lane id=":4423_0_0" index="0" speed="3.93" length="2.23" shape="12394.02,4584.90 12393.55,4584.55 12393.05,4584.40 12392.53,4584.45 12392.00,4584.72"/>
        <lane id=":4423_0_1" index="1" speed="6.12" length="6.69" shape="12396.27,4582.62 12394.83,4581.55 12393.34,4581.10 12391.80,4581.28 12390.20,4582.08"/>
    </edge>
    <edge id=":4423_2" function="internal">
        <lane id=":4423_2_0" index="0" speed="3.65" length="1.31" shape="12396.27,4582.62 12396.00,4581.34"/>
    </edge>
    <edge id=":4423_6" function="internal">
        <lane id=":4423_6_0" index="0" speed="3.65" length="3.36" shape="12396.00,4581.34 12395.97,4581.21 12396.25,4580.36 12397.10,4580.07 12398.51,4580.34"/>
    </edge>
    <edge id=":4423_3" function="internal">
        <lane id=":4423_3_0" index="0" speed="9.03" length="15.62" shape="12386.59,4576.79 12390.32,4574.93 12393.93,4574.51 12397.41,4575.56 12400.76,4578.06"/>
        <lane id=":4423_3_1" index="1" speed="7.71" length="11.16" shape="12388.39,4579.44 12391.06,4578.10 12393.64,4577.81 12396.12,4578.55 12398.51,4580.34"/>
    </edge>
    <edge id=":4423_5" function="internal">
        <lane id=":4423_5_0" index="0" speed="3.65" length="1.44" shape="12388.39,4579.44 12389.83,4579.42"/>
    </edge>
    <edge id=":4423_7" function="internal">
        <lane id=":4423_7_0" index="0" speed="3.65" length="3.23" shape="12389.83,4579.42 12390.61,4579.86 12390.74,4580.74 12390.20,4582.08"/>
    </edge>
    <edge id=":4448_0" function="internal">
        <lane id=":4448_0_0" index="0" speed="6.69" length="9.40" shape="12019.00,4846.72 12017.15,4844.81 12015.17,4843.90 12013.08,4843.99 12010.86,4845.08"/>
    </edge>
    <edge id=":4448_1" function="internal">
        <lane id=":4448_1_0" index="0" speed="9.19" length="19.66" shape="12021.57,4844.81 12018.99,4840.05 12018.60,4835.65 12020.40,4831.63 12024.39,4827.97"/>
    </edge>
    <edge id=":4448_2" function="internal">
        <lane id=":4448_2_0" index="0" speed="3.65" length="2.34" shape="12021.57,4844.81 12021.49,4843.37 12021.90,4842.57"/>
    </edge>
    <edge id=":4448_11" function="internal">
        <lane id=":4448_11_0" index="0" speed="3.65" length="2.34" shape="12021.90,4842.57 12022.78,4842.42 12024.13,4842.90"/>
    </edge>
    <edge id=":4448_3" function="internal">
        <lane id=":4448_3_0" index="0" speed="6.42" length="9.04" shape="12028.00,4833.25 12026.17,4834.93 12025.34,4836.78 12025.52,4838.80 12026.70,4840.99"/>
    </edge>
    <edge id=":4448_4" function="internal">
        <lane id=":4448_4_0" index="0" speed="13.89" length="20.84" shape="12028.00,4833.25 12010.86,4845.08"/>
        <lane id=":4448_4_1" index="1" speed="13.89" length="20.84" shape="12026.20,4830.61 12009.03,4842.46"/>
    </edge>
    <edge id=":4448_6" function="internal">
        <lane id=":4448_6_0" index="0" speed="3.65" length="1.44" shape="12026.20,4830.61 12024.76,4830.63"/>
    </edge>
    <edge id=":4448_12" function="internal">
        <lane id=":4448_12_0" index="0" speed="3.65" length="3.23" shape="12024.76,4830.63 12023.97,4830.19 12023.85,4829.30 12024.39,4827.97"/>
    </edge>
    <edge id=":4448_7" function="internal">
        <lane id=":4448_7_0" index="0" speed="13.89" length="20.91" shape="12005.37,4837.21 12022.59,4825.32"/>
        <lane id=":4448_7_1" index="1" speed="13.89" length="20.91" shape="12007.20,4839.83 12024.39,4827.97"/>
    </edge>
    <edge id=":4448_9" function="internal">
        <lane id=":4448_9_0" index="0" speed="9.39" length="5.03" shape="12007.20,4839.83 12011.70,4837.59"/>
    </edge>
    <edge id=":4448_10" function="internal">
        <lane id=":4448_10_0" index="0" speed="3.65" length="1.44" shape="12007.20,4839.83 12008.64,4839.80"/>
    </edge>
    <edge id=":4448_13" function="internal">
        <lane id=":4448_13_0" index="0" speed="9.39" length="14.46" shape="12011.70,4837.59 12011.88,4837.50 12016.26,4837.23 12020.34,4839.03 12024.13,4842.90"/>
    </edge>
    <edge id=":4448_14" function="internal">
        <lane id=":4448_14_0" index="0" speed="3.65" length="3.23" shape="12008.64,4839.80 12009.43,4840.23 12009.56,4841.11 12009.03,4842.46"/>
    </edge>
    <edge id=":4471_0" function="internal">
        <lane id=":4471_0_0" index="0" speed="6.95" length="9.84" shape="12957.29,5118.28 12955.30,5116.83 12953.18,5116.38 12950.91,5116.95 12948.51,5118.52"/>
    </edge>
    <edge id=":4471_1" function="internal">
        <lane id=":4471_1_0" index="0" speed="13.89" length="20.83" shape="12957.29,5118.28 12942.55,5103.56"/>
        <lane id=":4471_1_1" index="1" speed="13.89" length="20.83" shape="12959.58,5116.04 12944.84,5101.32"/>
    </edge>
    <edge id=":4471_3" function="internal">
        <lane id=":4471_3_0" index="0" speed="3.65" length="1.44" shape="12959.58,5116.04 12959.31,5114.62"/>
    </edge>
    <edge id=":4471_11" function="internal">
        <lane id=":4471_11_0" index="0" speed="3.65" length="3.23" shape="12959.31,5114.62 12959.60,5113.78 12960.45,5113.50 12961.86,5113.80"/>
    </edge>
    <edge id=":4471_4" function="internal">
        <lane id=":4471_4_0" index="0" speed="13.89" length="20.83" shape="12949.42,5096.83 12964.15,5111.56"/>
        <lane id=":4471_4_1" index="1" speed="13.89" length="20.83" shape="12947.13,5099.07 12961.86,5113.80"/>
    </edge>
    <edge id=":4471_6" function="internal">
        <lane id=":4471_6_0" index="0" speed="8.98" length="5.68" shape="12947.13,5099.07 12950.63,5103.32 12950.67,5103.50"/>
    </edge>
    <edge id=":4471_7" function="internal">
        <lane id=":4471_7_0" index="0" speed="3.65" length="1.45" shape="12947.13,5099.07 12947.40,5100.49"/>
    </edge>
    <edge id=":4471_12" function="internal">
        <lane id=":4471_12_0" index="0" speed="8.98" length="14.40" shape="12950.67,5103.50 12951.68,5107.57 12950.29,5111.82 12946.45,5116.07"/>
    </edge>
    <edge id=":4471_13" function="internal">
        <lane id=":4471_13_0" index="0" speed="3.65" length="3.24" shape="12947.40,5100.49 12947.11,5101.34 12946.25,5101.62 12944.84,5101.32"/>
    </edge>
    <edge id=":4471_8" function="internal">
        <lane id=":4471_8_0" index="0" speed="6.21" length="8.99" shape="12942.33,5111.17 12944.03,5109.28 12944.63,5107.38 12944.14,5105.48 12942.55,5103.56"/>
    </edge>
    <edge id=":4471_9" function="internal">
        <lane id=":4471_9_0" index="0" speed="9.58" length="19.60" shape="12944.39,5113.62 12949.04,5110.64 12953.50,5109.68 12957.77,5110.73 12961.86,5113.80"/>
    </edge>
    <edge id=":4471_10" function="internal">
        <lane id=":4471_10_0" index="0" speed="3.65" length="2.34" shape="12944.39,5113.62 12945.82,5113.46 12946.64,5113.82"/>
    </edge>
    <edge id=":4471_14" function="internal">
        <lane id=":4471_14_0" index="0" speed="3.65" length="2.34" shape="12946.64,5113.82 12946.85,5114.69 12946.45,5116.07"/>
    </edge>
    <edge id=":4474_0" function="internal">
        <lane id=":4474_0_0" index="0" speed="6.40" length="9.04" shape="11576.71,5154.89 11575.13,5152.97 11573.32,5152.05 11571.30,5152.14 11569.06,5153.23"/>
    </edge>
    <edge id=":4474_1" function="internal">
        <lane id=":4474_1_0" index="0" speed="9.51" length="19.48" shape="11579.45,5153.23 11577.26,5148.24 11577.04,5143.74 11578.80,5139.72 11582.53,5136.19"/>
    </edge>
    <edge id=":4474_2" function="internal">
        <lane id=":4474_2_0" index="0" speed="3.65" length="2.34" shape="11579.45,5153.23 11579.51,5151.79 11579.98,5151.03"/>
    </edge>
    <edge id=":4474_11" function="internal">
        <lane id=":4474_11_0" index="0" speed="3.65" length="2.34" shape="11579.98,5151.03 11580.88,5150.96 11582.18,5151.57"/>
    </edge>
    <edge id=":4474_3" function="internal">
        <lane id=":4474_3_0" index="0" speed="6.85" length="9.62" shape="11586.20,5141.44 11584.42,5143.15 11583.62,5145.13 11583.78,5147.38 11584.92,5149.90"/>
    </edge>
    <edge id=":4474_4" function="internal">
        <lane id=":4474_4_0" index="0" speed="13.89" length="20.78" shape="11586.20,5141.44 11569.06,5153.23"/>
        <lane id=":4474_4_1" index="1" speed="13.89" length="20.78" shape="11584.36,5138.81 11567.26,5150.58"/>
    </edge>
    <edge id=":4474_6" function="internal">
        <lane id=":4474_6_0" index="0" speed="3.65" length="1.44" shape="11584.36,5138.81 11582.92,5138.84"/>
    </edge>
    <edge id=":4474_12" function="internal">
        <lane id=":4474_12_0" index="0" speed="3.65" length="3.23" shape="11582.92,5138.84 11582.14,5138.42 11582.01,5137.53 11582.53,5136.19"/>
    </edge>
    <edge id=":4474_7" function="internal">
        <lane id=":4474_7_0" index="0" speed="13.89" length="20.70" shape="11563.67,5145.29 11580.70,5133.57"/>
        <lane id=":4474_7_1" index="1" speed="13.89" length="20.70" shape="11565.47,5147.93 11582.53,5136.19"/>
    </edge>
    <edge id=":4474_9" function="internal">
        <lane id=":4474_9_0" index="0" speed="9.18" length="4.79" shape="11565.47,5147.93 11569.77,5145.84"/>
    </edge>
    <edge id=":4474_10" function="internal">
        <lane id=":4474_10_0" index="0" speed="3.65" length="1.44" shape="11565.47,5147.93 11566.91,5147.92"/>
    </edge>
    <edge id=":4474_13" function="internal">
        <lane id=":4474_13_0" index="0" speed="9.18" length="14.95" shape="11569.77,5145.84 11570.36,5145.55 11574.78,5145.36 11578.72,5147.36 11582.18,5151.57"/>
    </edge>
    <edge id=":4474_14" function="internal">
        <lane id=":4474_14_0" index="0" speed="3.65" length="3.23" shape="11566.91,5147.92 11567.69,5148.36 11567.81,5149.24 11567.26,5150.58"/>
    </edge>
    <edge id=":4493_0" function="internal">
        <lane id=":4493_0_0" index="0" speed="13.89" length="22.48" shape="13277.70,5469.94 13277.81,5463.59 13278.06,5458.82 13277.11,5454.55 13273.65,5449.74"/>
        <lane id=":4493_0_1" index="1" speed="13.89" length="22.48" shape="13280.90,5469.77 13280.87,5463.10 13280.82,5457.63 13279.57,5452.67 13275.98,5447.54"/>
    </edge>
    <edge id=":4493_2" function="internal">
        <lane id=":4493_2_0" index="0" speed="8.20" length="23.49" shape="13280.90,5469.77 13282.10,5463.45 13285.83,5459.67 13291.08,5458.95 13296.87,5461.77"/>
    </edge>
    <edge id=":4493_3" function="internal">
        <lane id=":4493_3_0" index="0" speed="3.65" length="2.34" shape="13280.90,5469.77 13281.63,5468.53 13282.41,5468.09"/>
    </edge>
    <edge id=":4493_12" function="internal">
        <lane id=":4493_12_0" index="0" speed="3.65" length="2.34" shape="13282.41,5468.09 13283.23,5468.45 13284.09,5469.60"/>
    </edge>
    <edge id=":4493_4" function="internal">
        <lane id=":4493_4_0" index="0" speed="5.49" length="9.63" shape="13292.77,5466.69 13290.22,5465.02 13288.46,5464.92 13287.48,5466.39 13287.29,5469.43"/>
    </edge>
    <edge id=":4493_5" function="internal">
        <lane id=":4493_5_0" index="0" speed="13.89" length="25.38" shape="13292.77,5466.69 13287.51,5462.36 13282.91,5458.53 13278.46,5454.55 13273.65,5449.74"/>
        <lane id=":4493_5_1" index="1" speed="13.89" length="25.38" shape="13294.82,5464.23 13289.60,5459.94 13285.10,5456.20 13280.74,5452.31 13275.98,5447.54"/>
    </edge>
    <edge id=":4493_7" function="internal">
        <lane id=":4493_7_0" index="0" speed="3.65" length="1.44" shape="13294.82,5464.23 13294.41,5462.84"/>
    </edge>
    <edge id=":4493_13" function="internal">
        <lane id=":4493_13_0" index="0" speed="3.65" length="3.23" shape="13294.41,5462.84 13294.62,5461.97 13295.44,5461.62 13296.87,5461.77"/>
    </edge>
    <edge id=":4493_8" function="internal">
        <lane id=":4493_8_0" index="0" speed="13.89" length="24.63" shape="13280.62,5443.13 13285.30,5447.82 13289.47,5451.54 13293.79,5455.10 13298.92,5459.31"/>
        <lane id=":4493_8_1" index="1" speed="13.89" length="24.63" shape="13278.30,5445.34 13283.02,5450.07 13287.28,5453.87 13291.70,5457.52 13296.87,5461.77"/>
    </edge>
    <edge id=":4493_10" function="internal">
        <lane id=":4493_10_0" index="0" speed="13.89" length="3.89" shape="13278.30,5445.34 13280.50,5448.55"/>
    </edge>
    <edge id=":4493_11" function="internal">
        <lane id=":4493_11_0" index="0" speed="3.65" length="1.44" shape="13278.30,5445.34 13278.54,5446.76"/>
    </edge>
    <edge id=":4493_14" function="internal">
        <lane id=":4493_14_0" index="0" speed="13.89" length="21.75" shape="13280.50,5448.55 13282.03,5450.78 13283.58,5456.45 13283.93,5462.62 13284.09,5469.60"/>
    </edge>
    <edge id=":4493_15" function="internal">
        <lane id=":4493_15_0" index="0" speed="3.65" length="3.23" shape="13278.54,5446.76 13278.24,5447.60 13277.38,5447.86 13275.98,5447.54"/>
    </edge>
    <edge id=":4496_0" function="internal">
        <lane id=":4496_0_0" index="0" speed="6.29" length="9.04" shape="12497.88,5496.54 12496.22,5494.65 12494.40,5493.81 12492.41,5494.03 12490.24,5495.31"/>
    </edge>
    <edge id=":4496_1" function="internal">
        <lane id=":4496_1_0" index="0" speed="13.89" length="21.69" shape="12497.88,5496.54 12485.72,5478.68"/>
        <lane id=":4496_1_1" index="1" speed="13.89" length="21.69" shape="12500.56,5494.81 12488.31,5476.81"/>
    </edge>
    <edge id=":4496_3" function="internal">
        <lane id=":4496_3_0" index="0" speed="9.90" length="4.46" shape="12500.56,5494.81 12498.68,5490.77"/>
    </edge>
    <edge id=":4496_4" function="internal">
        <lane id=":4496_4_0" index="0" speed="3.65" length="1.44" shape="12500.56,5494.81 12500.59,5493.37"/>
    </edge>
    <edge id=":4496_20" function="internal">
        <lane id=":4496_20_0" index="0" speed="9.90" length="16.06" shape="12498.68,5490.77 12498.18,5489.72 12497.84,5484.99 12499.54,5480.63 12503.27,5476.63"/>
    </edge>
    <edge id=":4496_21" function="internal">
        <lane id=":4496_21_0" index="0" speed="3.65" length="3.23" shape="12500.59,5493.37 12501.04,5492.60 12501.93,5492.50 12503.25,5493.07"/>
    </edge>
    <edge id=":4496_5" function="internal">
        <lane id=":4496_5_0" index="0" speed="7.38" length="10.95" shape="12507.28,5481.61 12505.32,5483.73 12504.44,5486.06 12504.65,5488.60 12505.94,5491.34"/>
    </edge>
    <edge id=":4496_6" function="internal">
        <lane id=":4496_6_0" index="0" speed="13.89" length="21.86" shape="12507.28,5481.61 12490.24,5495.31"/>
        <lane id=":4496_6_1" index="1" speed="13.89" length="21.86" shape="12505.27,5479.12 12488.24,5492.81"/>
    </edge>
    <edge id=":4496_8" function="internal">
        <lane id=":4496_8_0" index="0" speed="9.17" length="4.98" shape="12505.27,5479.12 12500.99,5481.66"/>
    </edge>
    <edge id=":4496_9" function="internal">
        <lane id=":4496_9_0" index="0" speed="3.65" length="1.44" shape="12505.27,5479.12 12503.84,5479.25"/>
    </edge>
    <edge id=":4496_22" function="internal">
        <lane id=":4496_22_0" index="0" speed="9.17" length="14.78" shape="12500.99,5481.66 12500.58,5481.90 12496.19,5482.44 12492.10,5480.74 12488.31,5476.81"/>
    </edge>
    <edge id=":4496_23" function="internal">
        <lane id=":4496_23_0" index="0" speed="3.65" length="3.23" shape="12503.84,5479.25 12503.02,5478.88 12502.84,5478.00 12503.27,5476.63"/>
    </edge>
    <edge id=":4496_10" function="internal">
        <lane id=":4496_10_0" index="0" speed="6.39" length="9.04" shape="12493.51,5473.08 12495.24,5474.87 12497.11,5475.65 12499.12,5475.40 12501.26,5474.13"/>
    </edge>
    <edge id=":4496_11" function="internal">
        <lane id=":4496_11_0" index="0" speed="13.89" length="22.01" shape="12493.51,5473.08 12505.94,5491.34"/>
        <lane id=":4496_11_1" index="1" speed="13.89" length="22.01" shape="12490.91,5474.94 12503.25,5493.07"/>
    </edge>
    <edge id=":4496_13" function="internal">
        <lane id=":4496_13_0" index="0" speed="9.68" length="5.47" shape="12490.91,5474.94 12493.43,5479.80"/>
    </edge>
    <edge id=":4496_14" function="internal">
        <lane id=":4496_14_0" index="0" speed="3.65" length="1.44" shape="12490.91,5474.94 12490.96,5476.39"/>
    </edge>
    <edge id=":4496_24" function="internal">
        <lane id=":4496_24_0" index="0" speed="9.68" length="14.90" shape="12493.43,5479.80 12493.82,5484.39 12492.09,5488.73 12488.24,5492.81"/>
    </edge>
    <edge id=":4496_25" function="internal">
        <lane id=":4496_25_0" index="0" speed="3.65" length="3.23" shape="12490.96,5476.39 12490.55,5477.18 12489.66,5477.32 12488.31,5476.81"/>
    </edge>
    <edge id=":4496_15" function="internal">
        <lane id=":4496_15_0" index="0" speed="7.08" length="10.44" shape="12484.23,5487.83 12486.24,5485.71 12487.15,5483.49 12486.98,5481.14 12485.72,5478.68"/>
    </edge>
    <edge id=":4496_16" function="internal">
        <lane id=":4496_16_0" index="0" speed="13.89" length="21.86" shape="12484.23,5487.83 12501.26,5474.13"/>
        <lane id=":4496_16_1" index="1" speed="13.89" length="21.86" shape="12486.23,5490.32 12503.27,5476.63"/>
    </edge>
    <edge id=":4496_18" function="internal">
        <lane id=":4496_18_0" index="0" speed="9.10" length="4.97" shape="12486.23,5490.32 12490.51,5487.79"/>
    </edge>
    <edge id=":4496_19" function="internal">
        <lane id=":4496_19_0" index="0" speed="3.65" length="1.44" shape="12486.23,5490.32 12487.67,5490.19"/>
    </edge>
    <edge id=":4496_26" function="internal">
        <lane id=":4496_26_0" index="0" speed="9.10" length="15.20" shape="12490.51,5487.79 12491.06,5487.47 12495.51,5486.97 12499.57,5488.84 12503.25,5493.07"/>
    </edge>
    <edge id=":4496_27" function="internal">
        <lane id=":4496_27_0" index="0" speed="3.65" length="3.23" shape="12487.67,5490.19 12488.48,5490.56 12488.67,5491.44 12488.24,5492.81"/>
    </edge>
    <edge id=":4502_0" function="internal">
        <lane id=":4502_0_0" index="0" speed="7.49" length="10.80" shape="10854.43,5652.32 10851.89,5650.18 10849.45,5649.10 10847.11,5649.06 10844.86,5650.08"/>
    </edge>
    <edge id=":4502_1" function="internal">
        <lane id=":4502_1_0" index="0" speed="9.03" length="20.62" shape="10856.72,5650.09 10853.32,5645.41 10852.46,5640.97 10854.13,5636.76 10858.35,5632.80"/>
    </edge>
    <edge id=":4502_2" function="internal">
        <lane id=":4502_2_0" index="0" speed="3.65" length="2.34" shape="10856.72,5650.09 10856.46,5648.67 10856.75,5647.83"/>
    </edge>
    <edge id=":4502_11" function="internal">
        <lane id=":4502_11_0" index="0" speed="3.65" length="2.34" shape="10856.75,5647.83 10857.61,5647.55 10859.02,5647.86"/>
    </edge>
    <edge id=":4502_3" function="internal">
        <lane id=":4502_3_0" index="0" speed="6.19" length="9.05" shape="10862.02,5638.03 10860.17,5639.78 10859.44,5641.62 10859.82,5643.57 10861.31,5645.62"/>
    </edge>
    <edge id=":4502_4" function="internal">
        <lane id=":4502_4_0" index="0" speed="13.89" length="20.97" shape="10862.02,5638.03 10844.86,5650.08"/>
        <lane id=":4502_4_1" index="1" speed="13.89" length="20.97" shape="10860.18,5635.42 10843.02,5647.46"/>
    </edge>
    <edge id=":4502_6" function="internal">
        <lane id=":4502_6_0" index="0" speed="3.65" length="1.44" shape="10860.18,5635.42 10858.74,5635.45"/>
    </edge>
    <edge id=":4502_12" function="internal">
        <lane id=":4502_12_0" index="0" speed="3.65" length="3.23" shape="10858.74,5635.45 10857.96,5635.02 10857.82,5634.14 10858.35,5632.80"/>
    </edge>
    <edge id=":4502_7" function="internal">
        <lane id=":4502_7_0" index="0" speed="13.89" length="20.97" shape="10839.35,5642.22 10856.51,5630.18"/>
        <lane id=":4502_7_1" index="1" speed="13.89" length="20.97" shape="10841.19,5644.84 10858.35,5632.80"/>
    </edge>
    <edge id=":4502_9" function="internal">
        <lane id=":4502_9_0" index="0" speed="9.99" length="4.41" shape="10841.19,5644.84 10845.16,5642.92"/>
    </edge>
    <edge id=":4502_10" function="internal">
        <lane id=":4502_10_0" index="0" speed="3.65" length="1.44" shape="10841.19,5644.84 10842.63,5644.81"/>
    </edge>
    <edge id=":4502_13" function="internal">
        <lane id=":4502_13_0" index="0" speed="9.99" length="15.53" shape="10845.16,5642.92 10845.62,5642.70 10850.07,5642.49 10854.53,5644.21 10859.02,5647.86"/>
    </edge>
    <edge id=":4502_14" function="internal">
        <lane id=":4502_14_0" index="0" speed="3.65" length="3.23" shape="10842.63,5644.81 10843.41,5645.23 10843.55,5646.12 10843.02,5647.46"/>
    </edge>
    <edge id=":4518_0" function="internal">
        <lane id=":4518_0_0" index="0" speed="6.23" length="9.05" shape="12027.27,5885.09 12025.64,5883.16 12023.83,5882.32 12021.85,5882.56 12019.70,5883.89"/>
    </edge>
    <edge id=":4518_1" function="internal">
        <lane id=":4518_1_0" index="0" speed="13.89" length="22.74" shape="12027.27,5885.09 12015.25,5865.79"/>
        <lane id=":4518_1_1" index="1" speed="13.89" length="22.74" shape="12029.99,5883.40 12017.97,5864.10"/>
    </edge>
    <edge id=":4518_3" function="internal">
        <lane id=":4518_3_0" index="0" speed="10.23" length="5.20" shape="12029.99,5883.40 12027.87,5878.65"/>
    </edge>
    <edge id=":4518_4" function="internal">
        <lane id=":4518_4_0" index="0" speed="3.65" length="1.44" shape="12029.99,5883.40 12030.03,5881.96"/>
    </edge>
    <edge id=":4518_20" function="internal">
        <lane id=":4518_20_0" index="0" speed="10.23" length="16.14" shape="12027.87,5878.65 12027.64,5878.16 12027.37,5873.24 12029.17,5868.65 12033.03,5864.39"/>
    </edge>
    <edge id=":4518_21" function="internal">
        <lane id=":4518_21_0" index="0" speed="3.65" length="3.23" shape="12030.03,5881.96 12030.50,5881.19 12031.39,5881.11 12032.70,5881.70"/>
    </edge>
    <edge id=":4518_5" function="internal">
        <lane id=":4518_5_0" index="0" speed="7.80" length="12.02" shape="12037.13,5869.30 12034.96,5871.70 12033.94,5874.29 12034.10,5877.06 12035.41,5880.01"/>
    </edge>
    <edge id=":4518_6" function="internal">
        <lane id=":4518_6_0" index="0" speed="13.89" length="22.73" shape="12037.13,5869.30 12019.70,5883.89"/>
        <lane id=":4518_6_1" index="1" speed="13.89" length="22.73" shape="12035.08,5866.85 12017.65,5881.43"/>
    </edge>
    <edge id=":4518_8" function="internal">
        <lane id=":4518_8_0" index="0" speed="9.06" length="4.97" shape="12035.08,5866.85 12030.86,5869.46"/>
    </edge>
    <edge id=":4518_9" function="internal">
        <lane id=":4518_9_0" index="0" speed="3.65" length="1.44" shape="12035.08,5866.85 12033.65,5867.01"/>
    </edge>
    <edge id=":4518_22" function="internal">
        <lane id=":4518_22_0" index="0" speed="9.06" length="15.50" shape="12030.86,5869.46 12030.21,5869.86 12025.73,5870.40 12021.66,5868.48 12017.97,5864.10"/>
    </edge>
    <edge id=":4518_23" function="internal">
        <lane id=":4518_23_0" index="0" speed="3.65" length="3.23" shape="12033.65,5867.01 12032.83,5866.65 12032.62,5865.78 12033.03,5864.39"/>
    </edge>
    <edge id=":4518_10" function="internal">
        <lane id=":4518_10_0" index="0" speed="6.22" length="9.05" shape="12023.41,5860.72 12025.04,5862.66 12026.84,5863.51 12028.82,5863.27 12030.97,5861.94"/>
    </edge>
    <edge id=":4518_11" function="internal">
        <lane id=":4518_11_0" index="0" speed="13.89" length="22.72" shape="12023.41,5860.72 12035.41,5880.01"/>
        <lane id=":4518_11_1" index="1" speed="13.89" length="22.72" shape="12020.69,5862.41 12032.70,5881.70"/>
    </edge>
    <edge id=":4518_13" function="internal">
        <lane id=":4518_13_0" index="0" speed="10.24" length="5.12" shape="12020.69,5862.41 12022.77,5867.09"/>
    </edge>
    <edge id=":4518_14" function="internal">
        <lane id=":4518_14_0" index="0" speed="3.65" length="1.44" shape="12020.69,5862.41 12020.64,5863.85"/>
    </edge>
    <edge id=":4518_24" function="internal">
        <lane id=":4518_24_0" index="0" speed="10.24" length="16.23" shape="12022.77,5867.09 12023.03,5867.67 12023.30,5872.59 12021.50,5877.18 12017.65,5881.43"/>
    </edge>
    <edge id=":4518_25" function="internal">
        <lane id=":4518_25_0" index="0" speed="3.65" length="3.23" shape="12020.64,5863.85 12020.18,5864.62 12019.29,5864.70 12017.97,5864.10"/>
    </edge>
    <edge id=":4518_15" function="internal">
        <lane id=":4518_15_0" index="0" speed="7.82" length="12.05" shape="12013.54,5876.52 12015.72,5874.12 12016.73,5871.53 12016.57,5868.75 12015.25,5865.79"/>
    </edge>
    <edge id=":4518_16" function="internal">
        <lane id=":4518_16_0" index="0" speed="13.89" length="22.73" shape="12013.54,5876.52 12030.97,5861.94"/>
        <lane id=":4518_16_1" index="1" speed="13.89" length="22.73" shape="12015.59,5878.98 12033.03,5864.39"/>
    </edge>
    <edge id=":4518_18" function="internal">
        <lane id=":4518_18_0" index="0" speed="9.06" length="4.96" shape="12015.59,5878.98 12019.82,5876.37"/>
    </edge>
    <edge id=":4518_19" function="internal">
        <lane id=":4518_19_0" index="0" speed="3.65" length="1.44" shape="12015.59,5878.98 12017.03,5878.82"/>
    </edge>
    <edge id=":4518_26" function="internal">
        <lane id=":4518_26_0" index="0" speed="9.06" length="15.48" shape="12019.82,5876.37 12020.46,5875.97 12024.93,5875.43 12029.01,5877.34 12032.70,5881.70"/>
    </edge>
    <edge id=":4518_27" function="internal">
        <lane id=":4518_27_0" index="0" speed="3.65" length="3.23" shape="12017.03,5878.82 12017.85,5879.18 12018.05,5880.05 12017.65,5881.43"/>
    </edge>
    <edge id=":4520_0" function="internal">
        <lane id=":4520_0_0" index="0" speed="13.89" length="0.10" shape="10429.00,5946.44 10429.00,5946.44"/>
        <lane id=":4520_0_1" index="1" speed="13.89" length="0.10" shape="10426.97,5943.96 10426.97,5943.96"/>
    </edge>
    <edge id=":4520_2" function="internal">
        <lane id=":4520_2_0" index="0" speed="3.65" length="2.34" shape="10426.97,5943.96 10425.54,5944.10 10424.72,5943.73"/>
    </edge>
    <edge id=":4520_6" function="internal">
        <lane id=":4520_6_0" index="0" speed="3.65" length="2.34" shape="10424.72,5943.73 10424.52,5942.86 10424.95,5941.48"/>
    </edge>
    <edge id=":4520_3" function="internal">
        <lane id=":4520_3_0" index="0" speed="13.89" length="0.10" shape="10422.92,5939.00 10422.92,5939.00"/>
        <lane id=":4520_3_1" index="1" speed="13.89" length="0.10" shape="10424.95,5941.48 10424.95,5941.48"/>
    </edge>
    <edge id=":4520_5" function="internal">
        <lane id=":4520_5_0" index="0" speed="3.65" length="2.34" shape="10424.95,5941.48 10426.38,5941.34 10427.20,5941.71"/>
    </edge>
    <edge id=":4520_7" function="internal">
        <lane id=":4520_7_0" index="0" speed="3.65" length="2.34" shape="10427.20,5941.71 10427.40,5942.58 10426.97,5943.96"/>
    </edge>
    <edge id=":4521_0" function="internal">
        <lane id=":4521_0_0" index="0" speed="5.85" length="9.12" shape="13303.34,5913.15 13302.81,5910.55 13301.61,5909.07 13299.74,5908.72 13297.20,5909.49"/>
    </edge>
    <edge id=":4521_1" function="internal">
        <lane id=":4521_1_0" index="0" speed="13.89" length="21.75" shape="13303.34,5913.15 13302.02,5891.44"/>
        <lane id=":4521_1_1" index="1" speed="13.89" length="21.75" shape="13306.53,5912.96 13305.22,5891.25"/>
    </edge>
    <edge id=":4521_3" function="internal">
        <lane id=":4521_3_0" index="0" speed="3.65" length="1.44" shape="13306.53,5912.96 13307.26,5911.71"/>
    </edge>
    <edge id=":4521_11" function="internal">
        <lane id=":4521_11_0" index="0" speed="3.65" length="3.23" shape="13307.26,5911.71 13308.03,5911.27 13308.86,5911.62 13309.73,5912.77"/>
    </edge>
    <edge id=":4521_4" function="internal">
        <lane id=":4521_4_0" index="0" speed="13.89" length="21.75" shape="13311.61,5890.86 13312.92,5912.57"/>
        <lane id=":4521_4_1" index="1" speed="13.89" length="21.75" shape="13308.41,5891.06 13309.73,5912.77"/>
    </edge>
    <edge id=":4521_6" function="internal">
        <lane id=":4521_6_0" index="0" speed="11.37" length="3.86" shape="13308.41,5891.06 13307.93,5894.89"/>
    </edge>
    <edge id=":4521_7" function="internal">
        <lane id=":4521_7_0" index="0" speed="3.65" length="1.44" shape="13308.41,5891.06 13307.69,5892.30"/>
    </edge>
    <edge id=":4521_12" function="internal">
        <lane id=":4521_12_0" index="0" speed="11.37" length="17.37" shape="13307.93,5894.89 13307.84,5895.56 13305.56,5899.66 13301.56,5903.33 13295.85,5906.59"/>
    </edge>
    <edge id=":4521_13" function="internal">